11
	Energy:      -4.8871580
C         -8.26229        0.26802        0.02156
C         -7.01999        1.14270        0.01765
H         -8.24784       -0.43241        0.86258
H         -8.33671       -0.30979       -0.90543
H         -9.16119        0.88625        0.10902
C         -5.74990        0.31257       -0.06071
H         -7.00017        1.75305        0.92748
H         -7.06092        1.82977       -0.83463
H         -5.65932       -0.34718        0.80812
H         -4.87132        0.96482       -0.08451
H         -5.73927       -0.30573       -0.96408
